<?xml version="1.0" encoding="UTF-8"?>

<!-- generated on 2021-06-23 15:44:49 by Eclipse SUMO netedit Version 1.9.2
<configuration xmlns:xsi="http://www.w3.org/2001/XMLSchema-instance" xsi:noNamespaceSchemaLocation="http://sumo.dlr.de/xsd/netconvertConfiguration.xsd">

    <input>
        <sumo-net-file value="D:\Users\Ant\PycharmProjects\sumo_example\resources\osm.net.xml"/>
    </input>

    <output>
        <output-file value="D:\Users\Ant\PycharmProjects\sumo_example\resources\osm.net.xml"/>
        <output.street-names value="true"/>
    </output>

    <processing>
        <geometry.min-radius.fix.railways value="false"/>
        <geometry.max-grade.fix value="false"/>
        <offset.disable-normalization value="true"/>
        <lefthand value="false"/>
    </processing>

    <junctions>
        <no-turnarounds value="true"/>
        <junctions.corner-detail value="5"/>
        <junctions.limit-turn-speed value="5.5"/>
        <rectangular-lane-cut value="false"/>
    </junctions>

    <pedestrian>
        <walkingareas value="false"/>
    </pedestrian>

    <report>
        <aggregate-warnings value="5"/>
    </report>

</configuration>
-->

<net version="1.9" junctionCornerDetail="5" limitTurnSpeed="5.50" xmlns:xsi="http://www.w3.org/2001/XMLSchema-instance" xsi:noNamespaceSchemaLocation="http://sumo.dlr.de/xsd/net_file.xsd">

    <location netOffset="-352270.46,-6635292.13" convBoundary="0.00,0.00,7509.74,11353.51" origBoundary="30.356515,59.831492,30.498410,59.930719" projParameter="+proj=utm +zone=36 +ellps=WGS84 +datum=WGS84 +units=m +no_defs"/>

    <type id="highway.bridleway" priority="1" numLanes="1" speed="2.78" allow="pedestrian" oneway="1" width="2.00"/>
    <type id="highway.bus_guideway" priority="1" numLanes="1" speed="27.78" allow="bus" oneway="1"/>
    <type id="highway.cycleway" priority="1" numLanes="1" speed="8.33" allow="bicycle" oneway="1" width="1.00"/>
    <type id="highway.footway" priority="1" numLanes="1" speed="2.78" allow="pedestrian" oneway="1" width="2.00"/>
    <type id="highway.ford" priority="1" numLanes="1" speed="2.78" allow="army" oneway="1"/>
    <type id="highway.living_street" priority="2" numLanes="1" speed="2.78" disallow="tram rail_urban rail rail_electric rail_fast ship" oneway="1"/>
    <type id="highway.motorway" priority="14" numLanes="2" speed="39.44" allow="private emergency authority army vip passenger hov taxi bus coach delivery truck trailer motorcycle evehicle custom1 custom2" oneway="1"/>
    <type id="highway.motorway_link" priority="9" numLanes="1" speed="22.22" allow="private emergency authority army vip passenger hov taxi bus coach delivery truck trailer motorcycle evehicle custom1 custom2" oneway="1"/>
    <type id="highway.path" priority="1" numLanes="1" speed="2.78" allow="pedestrian bicycle" oneway="1" width="2.00"/>
    <type id="highway.pedestrian" priority="1" numLanes="1" speed="2.78" allow="pedestrian" oneway="1" width="2.00"/>
    <type id="highway.primary" priority="12" numLanes="2" speed="27.78" disallow="tram rail_urban rail rail_electric rail_fast ship" oneway="1"/>
    <type id="highway.primary_link" priority="7" numLanes="1" speed="22.22" disallow="tram rail_urban rail rail_electric rail_fast ship" oneway="1"/>
    <type id="highway.raceway" priority="15" numLanes="2" speed="83.33" allow="vip" oneway="1"/>
    <type id="highway.residential" priority="3" numLanes="1" speed="13.89" disallow="tram rail_urban rail rail_electric rail_fast ship" oneway="1"/>
    <type id="highway.secondary" priority="11" numLanes="1" speed="27.78" disallow="tram rail_urban rail rail_electric rail_fast ship" oneway="1"/>
    <type id="highway.secondary_link" priority="6" numLanes="1" speed="22.22" disallow="tram rail_urban rail rail_electric rail_fast ship" oneway="1"/>
    <type id="highway.service" priority="1" numLanes="1" speed="5.56" allow="pedestrian delivery bicycle" oneway="1"/>
    <type id="highway.stairs" priority="1" numLanes="1" speed="1.39" allow="pedestrian" oneway="1" width="2.00"/>
    <type id="highway.step" priority="1" numLanes="1" speed="1.39" allow="pedestrian" oneway="1" width="2.00"/>
    <type id="highway.steps" priority="1" numLanes="1" speed="1.39" allow="pedestrian" oneway="1" width="2.00"/>
    <type id="highway.tertiary" priority="10" numLanes="1" speed="22.22" disallow="tram rail_urban rail rail_electric rail_fast ship" oneway="1"/>
    <type id="highway.tertiary_link" priority="5" numLanes="1" speed="22.22" disallow="tram rail_urban rail rail_electric rail_fast ship" oneway="1"/>
    <type id="highway.track" priority="1" numLanes="1" speed="5.56" allow="pedestrian motorcycle moped bicycle" oneway="1"/>
    <type id="highway.trunk" priority="13" numLanes="2" speed="27.78" disallow="pedestrian bicycle tram rail_urban rail rail_electric rail_fast ship" oneway="1"/>
    <type id="highway.trunk_link" priority="8" numLanes="1" speed="22.22" disallow="pedestrian bicycle tram rail_urban rail rail_electric rail_fast ship" oneway="1"/>
    <type id="highway.unclassified" priority="4" numLanes="1" speed="13.89" disallow="tram rail_urban rail rail_electric rail_fast ship" oneway="1"/>
    <type id="highway.unsurfaced" priority="1" numLanes="1" speed="8.33" disallow="tram rail_urban rail rail_electric rail_fast ship" oneway="1"/>
    <type id="railway.highspeed" priority="21" numLanes="1" speed="69.44" allow="rail_fast" oneway="1"/>
    <type id="railway.light_rail" priority="19" numLanes="1" speed="27.78" allow="rail_urban" oneway="1"/>
    <type id="railway.preserved" priority="16" numLanes="1" speed="27.78" allow="rail" oneway="1"/>
    <type id="railway.rail" priority="20" numLanes="1" speed="44.44" allow="rail" oneway="1"/>
    <type id="railway.subway" priority="18" numLanes="1" speed="27.78" allow="rail_urban" oneway="1"/>
    <type id="railway.tram" priority="17" numLanes="1" speed="13.89" allow="tram" oneway="1"/>

    <edge id=":106238521_0" function="internal">
        <lane id=":106238521_0_0" index="0" disallow="tram rail_urban rail rail_electric rail_fast ship" speed="3.65" length="4.67" shape="2238.48,8788.91 2239.08,8790.22 2239.00,8791.11 2238.24,8791.58 2236.80,8791.63"/>
    </edge>
    <edge id=":110402333_0" function="internal">
        <lane id=":110402333_0_0" index="0" disallow="tram rail_urban rail rail_electric rail_fast ship" speed="16.67" length="5.31" shape="2387.16,8067.59 2390.41,8071.78"/>
        <lane id=":110402333_0_1" index="1" disallow="tram rail_urban rail rail_electric rail_fast ship" speed="16.67" length="5.31" shape="2384.63,8069.54 2387.88,8073.75"/>
    </edge>
    <edge id=":1218940713_0" function="internal">
        <lane id=":1218940713_0_0" index="0" disallow="tram rail_urban rail rail_electric rail_fast ship" speed="16.67" length="7.91" shape="2484.89,8238.17 2480.06,8231.90"/>
        <lane id=":1218940713_0_1" index="1" disallow="tram rail_urban rail rail_electric rail_fast ship" speed="16.67" length="7.91" shape="2487.42,8236.21 2482.59,8229.95"/>
    </edge>
    <edge id=":1218940713_2" function="internal">
        <lane id=":1218940713_2_0" index="0" disallow="tram rail_urban rail rail_electric rail_fast ship" speed="7.24" length="7.68" shape="2487.42,8236.21 2486.46,8234.55 2486.07,8232.80 2486.26,8230.94 2487.02,8228.98"/>
    </edge>
    <edge id=":1218940715_0" function="internal">
        <lane id=":1218940715_0_0" index="0" disallow="tram rail_urban rail rail_electric rail_fast ship" speed="16.67" length="8.06" shape="2501.98,8215.10 2506.95,8221.44"/>
        <lane id=":1218940715_0_1" index="1" disallow="tram rail_urban rail rail_electric rail_fast ship" speed="16.67" length="8.06" shape="2499.46,8217.08 2504.44,8223.42"/>
    </edge>
    <edge id=":1218940715_2" function="internal">
        <lane id=":1218940715_2_0" index="0" disallow="tram rail_urban rail rail_electric rail_fast ship" speed="7.77" length="7.49" shape="2497.51,8221.49 2499.83,8221.43 2501.75,8221.73 2503.29,8222.40 2504.44,8223.42"/>
    </edge>
    <edge id=":1218940774_0" function="internal">
        <lane id=":1218940774_0_0" index="0" disallow="tram rail_urban rail rail_electric rail_fast ship" speed="16.67" length="5.18" shape="2369.42,8089.53 2366.23,8085.49"/>
        <lane id=":1218940774_0_1" index="1" disallow="tram rail_urban rail rail_electric rail_fast ship" speed="16.67" length="5.18" shape="2371.95,8087.57 2368.72,8083.48"/>
    </edge>
    <edge id=":1222871055_0" function="internal">
        <lane id=":1222871055_0_0" index="0" disallow="tram rail_urban rail rail_electric rail_fast ship" speed="3.65" length="4.67" shape="2713.12,8107.88 2714.55,8107.73 2715.37,8108.09 2715.57,8108.96 2715.16,8110.34"/>
    </edge>
    <edge id=":1247640556_0" function="internal">
        <lane id=":1247640556_0_0" index="0" allow="pedestrian delivery bicycle" speed="5.02" length="5.02" shape="2301.05,8142.94 2302.43,8142.90 2303.46,8142.43 2304.14,8141.53 2304.47,8140.19"/>
    </edge>
    <edge id=":1247640556_1" function="internal">
        <lane id=":1247640556_1_0" index="0" allow="pedestrian delivery bicycle" speed="3.65" length="4.67" shape="2301.05,8142.94 2302.15,8143.87 2302.45,8144.71 2301.96,8145.46 2300.68,8146.11"/>
    </edge>
    <edge id=":1247640556_2" function="internal">
        <lane id=":1247640556_2_0" index="0" allow="pedestrian delivery bicycle" speed="5.08" length="5.05" shape="2303.49,8149.55 2303.44,8148.19 2302.95,8147.16 2302.03,8146.47 2300.68,8146.11"/>
    </edge>
    <edge id=":1247640556_3" function="internal">
        <lane id=":1247640556_3_0" index="0" disallow="tram rail_urban rail rail_electric rail_fast ship" speed="16.67" length="9.41" shape="2303.49,8149.55 2304.47,8140.19"/>
        <lane id=":1247640556_3_1" index="1" disallow="tram rail_urban rail rail_electric rail_fast ship" speed="16.67" length="9.41" shape="2306.67,8149.89 2307.66,8140.52"/>
    </edge>
    <edge id=":1297011638_0" function="internal">
        <lane id=":1297011638_0_0" index="0" allow="pedestrian delivery bicycle" speed="5.56" length="5.00" shape="2564.00,8128.25 2560.11,8131.38"/>
    </edge>
    <edge id=":1297011638_1" function="internal">
        <lane id=":1297011638_1_0" index="0" allow="pedestrian delivery bicycle" speed="3.65" length="4.67" shape="2564.00,8128.25 2562.57,8128.38 2561.76,8128.00 2561.57,8127.13 2562.00,8125.75"/>
    </edge>
    <edge id=":1297011638_2" function="internal">
        <lane id=":1297011638_2_0" index="0" allow="pedestrian delivery bicycle" speed="5.56" length="5.00" shape="2558.10,8128.88 2562.00,8125.75"/>
    </edge>
    <edge id=":1297011638_3" function="internal">
        <lane id=":1297011638_3_0" index="0" allow="pedestrian delivery bicycle" speed="3.65" length="4.67" shape="2558.10,8128.88 2559.54,8128.76 2560.35,8129.13 2560.54,8130.00 2560.11,8131.38"/>
    </edge>
    <edge id=":1297011641_0" function="internal">
        <lane id=":1297011641_0_0" index="0" allow="pedestrian delivery bicycle" speed="5.56" length="8.94" shape="2612.57,8151.99 2610.45,8153.58 2609.02,8154.70 2607.65,8155.89 2605.68,8157.67"/>
    </edge>
    <edge id=":1297011641_1" function="internal">
        <lane id=":1297011641_1_0" index="0" allow="pedestrian delivery bicycle" speed="5.56" length="9.93" shape="2612.57,8151.99 2610.22,8153.27 2607.98,8153.51 2605.84,8152.73 2603.81,8150.92"/>
    </edge>
    <edge id=":1297011641_2" function="internal">
        <lane id=":1297011641_2_0" index="0" allow="pedestrian delivery bicycle" speed="3.65" length="4.67" shape="2612.57,8151.99 2611.13,8152.07 2610.33,8151.66 2610.18,8150.78 2610.66,8149.42"/>
    </edge>
    <edge id=":1297011641_3" function="internal">
        <lane id=":1297011641_3_0" index="0" allow="pedestrian delivery bicycle" speed="5.15" length="5.01" shape="2606.25,8148.85 2607.28,8149.77 2608.36,8150.17 2609.49,8150.06 2610.66,8149.42"/>
    </edge>
    <edge id=":1297011641_4" function="internal">
        <lane id=":1297011641_4_0" index="0" allow="pedestrian delivery bicycle" speed="5.56" length="10.00" shape="2606.25,8148.85 2607.71,8151.16 2608.10,8153.40 2607.42,8155.57 2605.68,8157.67"/>
    </edge>
    <edge id=":1297011641_5" function="internal">
        <lane id=":1297011641_5_0" index="0" allow="pedestrian delivery bicycle" speed="3.65" length="4.67" shape="2606.25,8148.85 2606.42,8150.28 2606.07,8151.11 2605.20,8151.32 2603.81,8150.92"/>
    </edge>
    <edge id=":1297011641_6" function="internal">
        <lane id=":1297011641_6_0" index="0" allow="pedestrian delivery bicycle" speed="5.08" length="4.96" shape="2603.53,8155.30 2604.39,8154.25 2604.73,8153.18 2604.53,8152.07 2603.81,8150.92"/>
    </edge>
    <edge id=":1297011641_7" function="internal">
        <lane id=":1297011641_7_0" index="0" allow="pedestrian delivery bicycle" speed="5.56" length="9.25" shape="2603.53,8155.30 2605.57,8153.46 2606.99,8152.23 2608.47,8151.07 2610.66,8149.42"/>
    </edge>
    <edge id=":1297011641_8" function="internal">
        <lane id=":1297011641_8_0" index="0" allow="pedestrian delivery bicycle" speed="3.65" length="4.67" shape="2603.53,8155.30 2604.95,8155.08 2605.79,8155.41 2606.03,8156.27 2605.68,8157.67"/>
    </edge>
    <edge id=":1297011643_0" function="internal">
        <lane id=":1297011643_0_0" index="0" allow="pedestrian delivery bicycle" speed="5.56" length="5.23" shape="2596.17,8166.29 2592.21,8169.72"/>
    </edge>
    <edge id=":1297011643_1" function="internal">
        <lane id=":1297011643_1_0" index="0" allow="pedestrian delivery bicycle" speed="3.65" length="2.34" shape="2596.17,8166.29 2594.74,8166.51 2593.91,8166.18"/>
    </edge>
    <edge id=":1297011643_4" function="internal">
        <lane id=":1297011643_4_0" index="0" allow="pedestrian delivery bicycle" speed="3.65" length="2.34" shape="2593.91,8166.18 2593.67,8165.32 2594.02,8163.92"/>
    </edge>
    <edge id=":1297011643_2" function="internal">
        <lane id=":1297011643_2_0" index="0" allow="pedestrian delivery bicycle" speed="5.56" length="5.08" shape="2590.18,8167.24 2594.02,8163.92"/>
    </edge>
    <edge id=":1297011643_3" function="internal">
        <lane id=":1297011643_3_0" index="0" allow="pedestrian delivery bicycle" speed="3.65" length="2.34" shape="2590.18,8167.24 2591.61,8167.10 2592.43,8167.46"/>
    </edge>
    <edge id=":1297011643_5" function="internal">
        <lane id=":1297011643_5_0" index="0" allow="pedestrian delivery bicycle" speed="3.65" length="2.34" shape="2592.43,8167.46 2592.63,8168.34 2592.21,8169.72"/>
    </edge>
    <edge id=":1297011648_0" function="internal">
        <lane id=":1297011648_0_0" index="0" allow="pedestrian delivery bicycle" speed="5.56" length="9.39" shape="2574.70,8188.26 2568.57,8181.16"/>
    </edge>
    <edge id=":1297011648_1" function="internal">
        <lane id=":1297011648_1_0" index="0" allow="pedestrian delivery bicycle" speed="5.56" length="10.27" shape="2574.70,8188.26 2573.18,8185.88 2572.80,8183.60 2573.57,8181.42 2575.47,8179.33"/>
    </edge>
    <edge id=":1297011648_2" function="internal">
        <lane id=":1297011648_2_0" index="0" allow="pedestrian delivery bicycle" speed="3.65" length="4.67" shape="2574.70,8188.26 2574.52,8186.83 2574.87,8186.00 2575.74,8185.79 2577.13,8186.17"/>
    </edge>
    <edge id=":1297011648_3" function="internal">
        <lane id=":1297011648_3_0" index="0" allow="pedestrian delivery bicycle" speed="5.02" length="5.03" shape="2577.50,8181.81 2576.57,8182.82 2576.20,8183.89 2576.38,8185.01 2577.13,8186.17"/>
    </edge>
    <edge id=":1297011648_4" function="internal">
        <lane id=":1297011648_4_0" index="0" allow="pedestrian delivery bicycle" speed="5.56" length="10.16" shape="2577.50,8181.81 2575.11,8183.27 2572.82,8183.65 2570.64,8182.95 2568.57,8181.16"/>
    </edge>
    <edge id=":1297011648_5" function="internal">
        <lane id=":1297011648_5_0" index="0" allow="pedestrian delivery bicycle" speed="3.65" length="4.67" shape="2577.50,8181.81 2576.07,8181.95 2575.25,8181.59 2575.05,8180.71 2575.47,8179.33"/>
    </edge>
    <edge id=":1297011648_6" function="internal">
        <lane id=":1297011648_6_0" index="0" allow="pedestrian delivery bicycle" speed="5.12" length="5.09" shape="2570.98,8179.06 2572.02,8179.95 2573.11,8180.29 2574.26,8180.08 2575.47,8179.33"/>
    </edge>
    <edge id=":1297011648_7" function="internal">
        <lane id=":1297011648_7_0" index="0" allow="pedestrian delivery bicycle" speed="5.56" length="9.40" shape="2570.98,8179.06 2577.13,8186.17"/>
    </edge>
    <edge id=":1297011648_8" function="internal">
        <lane id=":1297011648_8_0" index="0" allow="pedestrian delivery bicycle" speed="3.65" length="4.67" shape="2570.98,8179.06 2571.17,8180.49 2570.82,8181.32 2569.96,8181.54 2568.57,8181.16"/>
    </edge>
    <edge id=":1297011654_0" function="internal">
        <lane id=":1297011654_0_0" index="0" allow="pedestrian delivery bicycle" speed="5.09" length="4.94" shape="2577.83,8121.01 2576.80,8120.14 2575.73,8119.79 2574.62,8119.95 2573.46,8120.64"/>
    </edge>
    <edge id=":1297011654_1" function="internal">
        <lane id=":1297011654_1_0" index="0" allow="pedestrian delivery bicycle" speed="5.56" length="8.98" shape="2577.83,8121.01 2576.07,8119.01 2574.97,8117.55 2574.13,8115.92 2573.16,8113.45"/>
    </edge>
    <edge id=":1297011654_2" function="internal">
        <lane id=":1297011654_2_0" index="0" allow="pedestrian delivery bicycle" speed="3.65" length="4.67" shape="2577.83,8121.01 2577.63,8119.59 2577.97,8118.76 2578.83,8118.53 2580.22,8118.90"/>
    </edge>
    <edge id=":1297011654_3" function="internal">
        <lane id=":1297011654_3_0" index="0" allow="pedestrian delivery bicycle" speed="5.56" length="7.79" shape="2576.16,8112.34 2577.00,8114.48 2577.74,8115.89 2578.70,8117.16 2580.22,8118.90"/>
    </edge>
    <edge id=":1297011654_4" function="internal">
        <lane id=":1297011654_4_0" index="0" allow="pedestrian delivery bicycle" speed="5.56" length="9.39" shape="2576.16,8112.34 2576.65,8114.63 2576.36,8116.78 2575.30,8118.78 2573.46,8120.64"/>
    </edge>
    <edge id=":1297011654_5" function="internal">
        <lane id=":1297011654_5_0" index="0" allow="pedestrian delivery bicycle" speed="3.65" length="4.67" shape="2576.16,8112.34 2575.83,8113.74 2575.22,8114.40 2574.33,8114.30 2573.16,8113.45"/>
    </edge>
    <edge id=":1297011654_6" function="internal">
        <lane id=":1297011654_6_0" index="0" allow="pedestrian delivery bicycle" speed="5.56" length="5.36" shape="2571.46,8118.15 2572.56,8117.06 2573.21,8115.91 2573.41,8114.71 2573.16,8113.45"/>
    </edge>
    <edge id=":1297011654_7" function="internal">
        <lane id=":1297011654_7_0" index="0" allow="pedestrian delivery bicycle" speed="5.56" length="9.94" shape="2571.46,8118.15 2573.78,8116.77 2576.02,8116.43 2578.17,8117.14 2580.22,8118.90"/>
    </edge>
    <edge id=":1297011654_8" function="internal">
        <lane id=":1297011654_8_0" index="0" allow="pedestrian delivery bicycle" speed="3.65" length="4.67" shape="2571.46,8118.15 2572.89,8118.02 2573.71,8118.39 2573.90,8119.27 2573.46,8120.64"/>
    </edge>
    <edge id=":1297011665_0" function="internal">
        <lane id=":1297011665_0_0" index="0" allow="pedestrian delivery bicycle" speed="5.56" length="9.57" shape="2586.95,8193.02 2579.44,8198.95"/>
    </edge>
    <edge id=":1297011665_1" function="internal">
        <lane id=":1297011665_1_0" index="0" allow="pedestrian delivery bicycle" speed="5.56" length="10.26" shape="2586.95,8193.02 2584.59,8194.43 2582.31,8194.74 2580.10,8193.94 2577.96,8192.05"/>
    </edge>
    <edge id=":1297011665_2" function="internal">
        <lane id=":1297011665_2_0" index="0" allow="pedestrian delivery bicycle" speed="3.65" length="4.67" shape="2586.95,8193.02 2585.51,8193.16 2584.70,8192.80 2584.50,8191.92 2584.92,8190.54"/>
    </edge>
    <edge id=":1297011665_3" function="internal">
        <lane id=":1297011665_3_0" index="0" allow="pedestrian delivery bicycle" speed="5.16" length="5.19" shape="2580.38,8189.96 2581.48,8190.94 2582.60,8191.37 2583.75,8191.24 2584.92,8190.54"/>
    </edge>
    <edge id=":1297011665_4" function="internal">
        <lane id=":1297011665_4_0" index="0" allow="pedestrian delivery bicycle" speed="5.56" length="10.45" shape="2580.38,8189.96 2581.93,8192.39 2582.30,8194.70 2581.47,8196.89 2579.44,8198.95"/>
    </edge>
    <edge id=":1297011665_5" function="internal">
        <lane id=":1297011665_5_0" index="0" allow="pedestrian delivery bicycle" speed="3.65" length="4.67" shape="2580.38,8189.96 2580.56,8191.39 2580.21,8192.22 2579.35,8192.43 2577.96,8192.05"/>
    </edge>
    <edge id=":1297011665_6" function="internal">
        <lane id=":1297011665_6_0" index="0" allow="pedestrian delivery bicycle" speed="4.98" length="5.07" shape="2577.50,8196.41 2578.48,8195.41 2578.89,8194.35 2578.71,8193.23 2577.96,8192.05"/>
    </edge>
    <edge id=":1297011665_7" function="internal">
        <lane id=":1297011665_7_0" index="0" allow="pedestrian delivery bicycle" speed="5.56" length="9.46" shape="2577.50,8196.41 2584.92,8190.54"/>
    </edge>
    <edge id=":1297011665_8" function="internal">
        <lane id=":1297011665_8_0" index="0" allow="pedestrian delivery bicycle" speed="3.65" length="4.67" shape="2577.50,8196.41 2578.94,8196.32 2579.74,8196.71 2579.91,8197.59 2579.44,8198.95"/>
    </edge>
    <edge id=":1297027356_0" function="internal">
        <lane id=":1297027356_0_0" index="0" allow="pedestrian delivery bicycle" speed="5.56" length="10.38" shape="2581.39,7987.52 2579.09,7985.55 2577.50,7984.09 2576.04,7982.50 2574.12,7980.16"/>
    </edge>
    <edge id=":1297027356_1" function="internal">
        <lane id=":1297027356_1_0" index="0" allow="pedestrian delivery bicycle" speed="5.56" length="11.29" shape="2581.39,7987.52 2579.28,7985.13 2578.61,7982.77 2579.40,7980.45 2581.64,7978.17"/>
    </edge>
    <edge id=":1297027356_2" function="internal">
        <lane id=":1297027356_2_0" index="0" allow="pedestrian delivery bicycle" speed="3.65" length="4.67" shape="2581.39,7987.52 2580.99,7986.14 2581.21,7985.27 2582.03,7984.92 2583.46,7985.09"/>
    </edge>
    <edge id=":1297027356_3" function="internal">
        <lane id=":1297027356_3_0" index="0" allow="pedestrian delivery bicycle" speed="4.84" length="5.28" shape="2583.58,7980.72 2582.53,7981.78 2582.17,7982.86 2582.48,7983.97 2583.46,7985.09"/>
    </edge>
    <edge id=":1297027356_4" function="internal">
        <lane id=":1297027356_4_0" index="0" allow="pedestrian delivery bicycle" speed="5.56" length="10.74" shape="2583.58,7980.72 2580.89,7982.28 2578.42,7982.71 2576.16,7982.00 2574.12,7980.16"/>
    </edge>
    <edge id=":1297027356_5" function="internal">
        <lane id=":1297027356_5_0" index="0" allow="pedestrian delivery bicycle" speed="3.65" length="4.67" shape="2583.58,7980.72 2582.14,7980.81 2581.34,7980.41 2581.17,7979.53 2581.64,7978.17"/>
    </edge>
    <edge id=":1297027356_6" function="internal">
        <lane id=":1297027356_6_0" index="0" allow="pedestrian delivery bicycle" speed="5.36" length="5.68" shape="2576.62,7978.15 2577.65,7979.05 2578.83,7979.35 2580.16,7979.06 2581.64,7978.17"/>
    </edge>
    <edge id=":1297027356_7" function="internal">
        <lane id=":1297027356_7_0" index="0" allow="pedestrian delivery bicycle" speed="5.56" length="9.77" shape="2576.62,7978.15 2578.45,7980.40 2579.79,7981.86 2581.26,7983.21 2583.46,7985.09"/>
    </edge>
    <edge id=":1297027356_8" function="internal">
        <lane id=":1297027356_8_0" index="0" allow="pedestrian delivery bicycle" speed="3.65" length="4.67" shape="2576.62,7978.15 2576.74,7979.59 2576.37,7980.40 2575.49,7980.59 2574.12,7980.16"/>
    </edge>
    <edge id=":1297027357_0" function="internal">
        <lane id=":1297027357_0_0" index="0" allow="pedestrian delivery bicycle" speed="4.92" length="5.15" shape="2657.71,7928.31 2656.81,7927.20 2655.79,7926.68 2654.66,7926.78 2653.40,7927.47"/>
    </edge>
    <edge id=":1297027357_1" function="internal">
        <lane id=":1297027357_1_0" index="0" allow="pedestrian delivery bicycle" speed="5.56" length="9.24" shape="2657.71,7928.31 2656.31,7925.96 2655.40,7924.31 2654.63,7922.60 2653.64,7920.04"/>
    </edge>
    <edge id=":1297027357_2" function="internal">
        <lane id=":1297027357_2_0" index="0" allow="pedestrian delivery bicycle" speed="3.65" length="4.67" shape="2657.71,7928.31 2657.79,7926.87 2658.27,7926.12 2659.16,7926.06 2660.46,7926.69"/>
    </edge>
    <edge id=":1297027357_3" function="internal">
        <lane id=":1297027357_3_0" index="0" allow="pedestrian delivery bicycle" speed="5.56" length="8.67" shape="2656.64,7918.93 2657.57,7921.33 2658.29,7922.93 2659.15,7924.47 2660.46,7926.69"/>
    </edge>
    <edge id=":1297027357_4" function="internal">
        <lane id=":1297027357_4_0" index="0" allow="pedestrian delivery bicycle" speed="5.56" length="9.86" shape="2656.64,7918.93 2657.10,7921.24 2656.71,7923.43 2655.48,7925.51 2653.40,7927.47"/>
    </edge>
    <edge id=":1297027357_5" function="internal">
        <lane id=":1297027357_5_0" index="0" allow="pedestrian delivery bicycle" speed="3.65" length="4.67" shape="2656.64,7918.93 2656.31,7920.33 2655.70,7920.98 2654.81,7920.89 2653.64,7920.04"/>
    </edge>
    <edge id=":1297027357_6" function="internal">
        <lane id=":1297027357_6_0" index="0" allow="pedestrian delivery bicycle" speed="5.56" length="5.76" shape="2651.46,7924.93 2652.77,7923.73 2653.57,7922.52 2653.86,7921.29 2653.64,7920.04"/>
    </edge>
    <edge id=":1297027357_7" function="internal">
        <lane id=":1297027357_7_0" index="0" allow="pedestrian delivery bicycle" speed="5.56" length="10.76" shape="2651.46,7924.93 2654.08,7923.47 2656.46,7923.28 2658.58,7924.35 2660.46,7926.69"/>
    </edge>
    <edge id=":1297027357_8" function="internal">
        <lane id=":1297027357_8_0" index="0" allow="pedestrian delivery bicycle" speed="3.65" length="4.67" shape="2651.46,7924.93 2652.90,7924.84 2653.71,7925.23 2653.87,7926.11 2653.40,7927.47"/>
    </edge>
    <edge id=":1297027359_0" function="internal">
        <lane id=":1297027359_0_0" index="0" allow="pedestrian delivery bicycle" speed="5.56" length="4.15" shape="2504.68,8106.02 2503.88,8105.10 2503.21,8104.56 2502.41,8104.25 2501.21,8104.03"/>
    </edge>
    <edge id=":1297027359_1" function="internal">
        <lane id=":1297027359_1_0" index="0" allow="pedestrian bicycle" speed="4.17" length="3.14" width="2.00" shape="2504.68,8106.02 2503.94,8104.58 2503.91,8103.05"/>
    </edge>
    <edge id=":1297027359_2" function="internal">
        <lane id=":1297027359_2_0" index="0" allow="pedestrian delivery bicycle" speed="3.65" length="2.34" shape="2504.68,8106.02 2504.53,8104.59 2504.90,8103.77"/>
    </edge>
    <edge id=":1297027359_9" function="internal">
        <lane id=":1297027359_9_0" index="0" allow="pedestrian bicycle" speed="4.17" length="4.74" width="2.00" shape="2503.91,8103.05 2503.91,8102.90 2504.57,8100.98 2505.93,8098.82"/>
    </edge>
    <edge id=":1297027359_10" function="internal">
        <lane id=":1297027359_10_0" index="0" allow="pedestrian delivery bicycle" speed="3.65" length="2.34" shape="2504.90,8103.77 2505.77,8103.57 2507.15,8103.99"/>
    </edge>
    <edge id=":1297027359_3" function="internal">
        <lane id=":1297027359_3_0" index="0" allow="pedestrian bicycle" speed="4.17" length="4.33" shape="2507.53,8100.02 2506.86,8101.13 2506.57,8102.17 2506.66,8103.12 2507.15,8103.99"/>
    </edge>
    <edge id=":1297027359_4" function="internal">
        <lane id=":1297027359_4_0" index="0" allow="pedestrian bicycle" speed="4.17" length="7.82" shape="2507.53,8100.02 2505.88,8101.94 2504.28,8103.25 2502.72,8103.95 2501.21,8104.03"/>
    </edge>
    <edge id=":1297027359_5" function="internal">
        <lane id=":1297027359_5_0" index="0" allow="pedestrian bicycle" speed="2.78" length="2.92" width="2.00" shape="2507.53,8100.02 2506.68,8100.32 2506.13,8100.22 2505.88,8099.72 2505.93,8098.82"/>
    </edge>
    <edge id=":1297027359_6" function="internal">
        <lane id=":1297027359_6_0" index="0" allow="pedestrian bicycle" speed="4.17" length="4.96" width="2.00" shape="2501.69,8100.87 2502.87,8100.88 2503.97,8100.54 2504.99,8099.85 2505.93,8098.82"/>
    </edge>
    <edge id=":1297027359_7" function="internal">
        <lane id=":1297027359_7_0" index="0" allow="pedestrian delivery bicycle" speed="5.56" length="6.53" shape="2501.69,8100.87 2503.58,8101.21 2504.84,8101.70 2505.89,8102.54 2507.15,8103.99"/>
    </edge>
    <edge id=":1297027359_8" function="internal">
        <lane id=":1297027359_8_0" index="0" allow="pedestrian delivery bicycle" speed="3.65" length="2.34" shape="2501.69,8100.87 2502.76,8101.84 2503.04,8102.69"/>
    </edge>
    <edge id=":1297027359_11" function="internal">
        <lane id=":1297027359_11_0" index="0" allow="pedestrian delivery bicycle" speed="3.65" length="2.34" shape="2503.04,8102.69 2502.52,8103.42 2501.21,8104.03"/>
    </edge>
    <edge id=":1297027363_0" function="internal">
        <lane id=":1297027363_0_0" index="0" allow="pedestrian delivery bicycle" speed="5.01" length="5.04" shape="2668.20,7945.37 2667.26,7944.36 2666.22,7943.90 2665.09,7944.00 2663.87,7944.66"/>
    </edge>
    <edge id=":1297027363_1" function="internal">
        <lane id=":1297027363_1_0" index="0" allow="pedestrian delivery bicycle" speed="5.56" length="9.29" shape="2668.20,7945.37 2663.17,7937.56"/>
    </edge>
    <edge id=":1297027363_2" function="internal">