<?xml version="1.0" encoding="UTF-8"?>

<!-- generated on 2021-06-17 13:33:33 by Eclipse SUMO polyconvert Version 1.9.2
<configuration xmlns:xsi="http://www.w3.org/2001/XMLSchema-instance" xsi:noNamespaceSchemaLocation="http://sumo.dlr.de/xsd/polyconvertConfiguration.xsd">

    <input>
        <net-file value="osm.net.xml"/>
        <osm-files value="osm_bbox.osm.xml"/>
        <osm.keep-full-type value="true"/>
        <type-file value="D:\Program%20Files\Eclipse\Sumo\data\typemap\osmPolyconvert.typ.xml"/>
    </input>

    <output>
        <output-file value="osm.poly.xml"/>
    </output>

    <processing>
        <poi-layer-offset value="5"/>
    </processing>

    <report>
        <verbose value="true"/>
    </report>

</configuration>
-->

<additional xmlns:xsi="http://www.w3.org/2001/XMLSchema-instance" xsi:noNamespaceSchemaLocation="http://sumo.dlr.de/xsd/additional_file.xsd">
    <location netOffset="-352270.46,-6635292.13" convBoundary="-0.00,-0.00,7509.74,11353.51" origBoundary="30.356515,59.831492,30.498410,59.930719" projParameter="+proj=utm +zone=36 +ellps=WGS84 +datum=WGS84 +units=m +no_defs"/>

    <poly id="106486344" type="building.yes" color="255,230,230" fill="1" layer="-1.00" shape="2679.946456,8036.299990 2689.922837,8027.938239 2706.469337,8047.623939 2709.971929,8044.688562 2730.277248,8068.842380 2727.235543,8071.391800 2732.867995,8078.082937 2722.430794,8086.830512 2679.946456,8036.299990"/>
    <poly id="108818641" type="amenity.fuel" color="237,199,199" fill="1" layer="-1.00" shape="2251.423652,8127.006151 2259.575543,8116.563303 2222.790454,8087.953855 2218.381248,8093.600898 2245.346120,8114.569630 2241.597863,8119.365708 2251.423652,8127.006151"/>
    <poly id="108818641#1" type="building.yes" color="255,230,230" fill="1" layer="-1.00" shape="2251.423652,8127.006151 2259.575543,8116.563303 2222.790454,8087.953855 2218.381248,8093.600898 2245.346120,8114.569630 2241.597863,8119.365708 2251.423652,8127.006151"/>
    <poly id="108818643" type="building.yes" color="255,230,230" fill="1" layer="-1.00" shape="2260.607524,8134.415438 2266.005977,8127.436391 2276.464229,8135.497965 2271.065771,8142.476997 2260.607524,8134.415438"/>
    <poly id="114505952" type="building.yes" color="255,230,230" fill="1" layer="-1.00" shape="2621.726905,8097.822459 2647.979552,8126.402580 2657.704549,8117.493176 2631.451923,8088.912987 2621.726905,8097.822459"/>
    <poly id="114505953" type="building.yes" color="255,230,230" fill="1" layer="-1.00" shape="2607.260363,7967.645407 2614.901775,7961.861009 2618.574755,7966.700195 2610.933348,7972.484586 2607.260363,7967.645407"/>
    <poly id="114505954" type="building.yes" color="255,230,230" fill="0" layer="-1.00" shape="2616.998872,8036.069312 2612.104185,8030.062889 2618.931379,8024.511077 2623.327365,8020.938599 2628.228071,8026.955949"/>
    <poly id="114505955" type="building.yes" color="255,230,230" fill="0" layer="-1.00" shape="2580.961392,8204.546829 2584.006378,8202.086333 2590.314334,8197.011879 2594.014061,8201.537839"/>
    <poly id="114505956" type="building.yes" color="255,230,230" fill="1" layer="-1.00" shape="2624.770742,7959.757345 2628.487231,7956.991876 2626.306146,7954.067402 2622.590092,7956.844003 2624.770742,7959.757345"/>
    <poly id="114512588" type="building.yes" color="255,230,230" fill="1" layer="-1.00" shape="2583.462943,8122.822748 2589.139370,8129.344732 2593.298888,8125.458189 2587.622899,8118.947330 2583.462943,8122.822748"/>
    <poly id="114512589" type="building.yes" color="255,230,230" fill="1" layer="-1.00" shape="2313.401427,8340.609623 2321.399108,8341.644333 2321.215107,8343.089666 2327.107767,8343.850349 2324.097622,8367.145482 2310.207806,8365.361232 2313.401427,8340.609623"/>
    <poly id="114925123" type="building.yes" color="255,230,230" fill="1" layer="-1.00" shape="2668.480127,7994.921915 2680.839543,8008.071635 2673.449948,8014.994276 2661.090089,8001.833450 2668.480127,7994.921915"/>
    <poly id="114925127" type="building.yes" color="255,230,230" fill="1" layer="-1.00" shape="2660.172655,8008.145745 2676.869333,8029.085166 2665.122287,8038.419335 2648.426014,8017.491097 2660.172655,8008.145745"/>
    <poly id="118945167" type="building.offices" color="255,230,230" fill="0" layer="-1.00" shape="2312.775850,7901.042852 2292.550146,7925.337586 2269.469799,7901.205836 2241.604086,7870.885574 2254.954134,7854.753599"/>
    <poly id="118945168" type="landuse.commercial" color="209,209,204" fill="0" layer="-3.00" shape="2307.328908,7896.819889 2280.400053,7875.369868"/>
    <poly id="124328352" type="leisure.park" color="207,245,201" fill="1" layer="-2.00" shape="2548.627544,8143.564204 2573.048110,8173.397362 2595.742722,8153.366250 2571.376645,8123.920992 2548.627544,8143.564204"/>
    <poly id="124328353" type="leisure.park" color="207,245,201" fill="1" layer="-2.00" shape="2651.736793,7930.072261 2653.495643,7929.367893 2655.263099,7929.454697 2657.214523,7930.091695 2658.615471,7931.686700 2659.633018,7933.787245 2660.213944,7936.607226 2659.992619,7938.533360 2659.258536,7940.379257 2599.564411,7985.750543 2597.508130,7986.009531 2595.354475,7985.213274 2593.727920,7984.006171 2592.456792,7982.294619 2591.882501,7980.644930 2591.618444,7979.194890 2591.639390,7977.443826 2592.402780,7975.775134 2651.736793,7930.072261"/>
    <poly id="128729016" type="landuse.industrial" color="209,209,204" fill="0" layer="-3.00" shape="2825.100387,7436.984075 2748.273546,7536.834400 2698.185204,7596.576339 2558.843237,7764.040847 2678.645996,7855.619162 2672.601212,7862.712055"/>
    <poly id="128974958" type="leisure.park" color="207,245,201" fill="0" layer="-2.00" shape="2431.031791,8103.374348 2426.245305,8107.263395 2395.392859,8066.981500 2394.954584,8064.233986 2395.207020,8061.392464 2396.034585,8058.650991 2399.310329,8051.655167 2401.062018,8046.491726 2402.529939,8040.804319 2403.715729,8033.065596 2403.179745,8021.838236 2401.050945,8008.410351 2393.414674,7983.649296 2392.675919,7979.809920 2392.627890,7975.876537 2393.556988,7972.439897 2400.724150,7963.284646 2402.093630,7962.506257 2403.965922,7962.410457 2428.945889,7964.919206 2428.212036,7970.477451 2461.242227,7975.201043 2448.938544,7988.180879"/>
    <poly id="128974961" type="amenity.hospital" color="237,199,199" fill="0" layer="-1.00" shape="2628.228071,8026.955949 2693.936600,7973.445503"/>
    <poly id="128974972" type="amenity.hospital" color="237,199,199" fill="0" layer="-1.00" shape="2594.014061,8201.537839 2597.286384,8198.734000 2602.471005,8195.286635 2674.448867,8135.086290"/>
    <poly id="129212582" type="leisure.park" color="207,245,201" fill="0" layer="-2.00" shape="2585.203502,7813.296042 2547.056067,7779.508353 2439.650737,7913.485500 2451.099559,7921.241144 2454.942293,7925.404635 2458.116124,7929.505196 2460.557711,7934.782745 2462.286296,7934.592282 2462.748457,7939.947510 2462.901860,7944.712860 2479.286942,7949.253751"/>
    <poly id="140287025" type="building.yes" color="255,230,230" fill="1" layer="-1.00" shape="2498.358442,7685.378026 2524.927148,7707.501487 2550.020899,7677.454395 2526.642489,7657.992635 2507.331259,7681.113076 2504.146519,7678.450992 2498.358442,7685.378026"/>
    <poly id="140287025#1" type="shop.car" color="237,199,255" fill="1" layer="-1.00" shape="2498.358442,7685.378026 2524.927148,7707.501487 2550.020899,7677.454395 2526.642489,7657.992635 2507.331259,7681.113076 2504.146519,7678.450992 2498.358442,7685.378026"/>
    <poly id="154485431" type="building.yes" color="255,230,230" fill="0" layer="-1.00" shape="1918.655100,7843.023875 1925.027821,7857.087085 1954.586965,7843.726911"/>
    <poly id="154485432" type="amenity.parking" color="184,184,179" fill="1" layer="-1.00" shape="2094.553691,8023.131720 2166.539464,7991.995236 2200.944162,7966.573744 2213.612997,8006.208866 2163.634475,8029.344150 2109.701203,8054.999117 2106.346555,8048.018590 2094.553691,8023.131720"/>
    <poly id="154485433" type="building.yes" color="255,230,230" fill="1" layer="-1.00" shape="2210.459781,7903.201758 2216.415121,7909.812589 2218.941091,7907.539419 2214.549163,7902.661971 2212.985752,7900.928584 2210.459781,7903.201758"/>
    <poly id="154485435" type="building.yes" color="255,230,230" fill="1" layer="-1.00" shape="2189.393635,8041.419148 2216.818053,8029.047959 2210.280121,8015.447883 2183.127606,8028.042535 2182.528001,8026.750634 2174.828216,8030.319788 2172.650770,8025.645168 2167.079426,8028.227647 2175.776776,8048.888679 2189.896333,8042.525341 2189.393635,8041.419148"/>
    <poly id="154485435#1" type="shop.car_repair" color="237,199,255" fill="1" layer="-1.00" shape="2189.393635,8041.419148 2216.818053,8029.047959 2210.280121,8015.447883 2183.127606,8028.042535 2182.528001,8026.750634 2174.828216,8030.319788 2172.650770,8025.645168 2167.079426,8028.227647 2175.776776,8048.888679 2189.896333,8042.525341 2189.393635,8041.419148"/>
    <poly id="154485438" type="building.yes" color="255,230,230" fill="1" layer="-1.00" shape="2223.419997,7974.753611 2245.266005,7964.630895 2237.252052,7947.387615 2215.405958,7957.510377 2223.419997,7974.753611"/>
    <poly id="154489081" type="amenity.parking" color="184,184,179" fill="0" layer="-1.00" shape="2264.197675,7934.924161 2277.415370,7922.554364 2237.672847,7878.442412 2225.288390,7892.920031"/>
    <poly id="154489084" type="amenity.parking" color="184,184,179" fill="0" layer="-1.00" shape="2087.465464,7762.678437 2087.022602,7757.400505"/>
    <poly id="154489087" type="building.yes" color="255,230,230" fill="1" layer="-1.00" shape="1902.915586,8348.866891 1946.460380,8328.444912 1913.855039,8259.830376 1900.390260,8266.436593 1918.227413,8304.863885 1899.703916,8313.542294 1894.574921,8302.607370 1883.519070,8307.814411 1884.752844,8310.419057 1902.915586,8348.866891"/>
    <poly id="154489089" type="building.yes" color="255,230,230" fill="1" layer="-1.00" shape="2107.763140,7793.183853 2110.197576,7795.986601 2115.120714,7791.723889 2112.692309,7788.932049 2107.763140,7793.183853"/>
    <poly id="154489794" type="amenity.parking" color="184,184,179" fill="1" layer="-1.00" shape="2207.740919,8095.301223 2289.081738,8158.323981 2287.368166,8170.152548 2280.058887,8244.217843 2277.261046,8244.127122 2257.207537,8241.827193 2227.531821,8236.917919 2223.868027,8234.029661 2215.345813,8227.921085 2251.910209,8176.573763 2252.598558,8176.847707 2254.030917,8173.112540 2254.776679,8169.147952 2254.313969,8164.071457 2252.894077,8160.002466 2250.820294,8156.393951 2248.607589,8154.095224 2248.062122,8154.607179 2239.527433,8148.041959 2222.617582,8136.265370 2210.031986,8127.083579 2210.261812,8126.662064 2206.133292,8124.918046 2201.461979,8124.466257 2196.411919,8124.921213 2191.715968,8126.833803 2188.472062,8129.358193 2187.540317,8130.442750 2147.608640,8186.293223 2139.782765,8180.525308 2133.390875,8176.049925 2109.483704,8134.025534 2111.189854,8133.267230 2171.810529,8106.814134 2180.642014,8113.088837 2188.546515,8102.767032 2207.740919,8095.301223"/>
    <poly id="154491007" type="building.yes" color="255,230,230" fill="1" layer="-1.00" shape="1983.203457,8039.409319 2016.154010,8024.745482 2015.637883,8023.584097 2011.363268,8014.008900 1978.413070,8028.683910 1983.203457,8039.409319"/>
    <poly id="154491008" type="building.industrial" color="255,230,230" fill="1" layer="-1.00" shape="1860.057121,8344.067509 1878.630695,8335.386915 1856.952065,8288.582848 1838.227220,8297.124576 1860.057121,8344.067509"/>
    <poly id="154491010" type="building.yes" color="255,230,230" fill="1" layer="-1.00" shape="2073.938195,8336.736957 2087.310888,8347.002111 2104.502888,8324.687144 2091.124581,8314.422147 2073.938195,8336.736957"/>
    <poly id="154491011" type="building.yes" color="255,230,230" fill="1" layer="-1.00" shape="1888.663781,8055.930953 1902.611626,8049.484075 1882.676845,8006.457226 1868.728424,8012.893047 1888.663781,8055.930953"/>
    <poly id="154491012" type="building.yes" color="255,230,230" fill="1" layer="-1.00" shape="2032.539898,8375.567668 2119.080448,8422.796803 2127.872870,8406.743197 2125.795653,8405.609769 2128.663618,8400.368808 2044.194825,8354.284178 2032.539898,8375.567668"/>
    <poly id="154491014" type="building.yes" color="255,230,230" fill="1" layer="-1.00" shape="1835.789035,7962.184973 1845.060545,7967.806136 1857.005820,7948.194014 1847.733845,7942.561690 1835.789035,7962.184973"/>
    <poly id="154491014#1" type="man_made.works" color="255,230,230" fill="1" layer="-1.00" shape="1835.789035,7962.184973 1845.060545,7967.806136 1857.005820,7948.194014 1847.733845,7942.561690 1835.789035,7962.184973"/>
    <poly id="154491015" type="building.office" color="255,230,230" fill="1" layer="-1.00" shape="1810.449970,8369.356028 1819.953027,8364.823118 1815.812390,8355.242852 1813.791522,8350.997032 1832.512085,8342.354998 1827.243809,8331.726649 1832.839465,8329.209552 1818.820194,8299.439174 1809.170605,8303.810632 1805.461877,8296.097387 1837.854384,8281.130507 1831.525881,8267.756899 1806.913426,8279.083794 1804.582908,8278.205783 1803.494031,8280.556383 1798.744647,8282.950970 1795.180265,8296.368976 1803.757146,8299.587085 1806.340810,8305.181939 1796.426945,8309.809110 1794.985914,8307.346440 1788.854175,8310.185732 1790.079793,8312.723783 1785.615811,8314.828432 1799.011735,8344.121606 1806.091151,8359.639448 1810.449970,8369.356028"/>
    <poly id="154492853" type="amenity.parking" color="184,184,179" fill="1" layer="-1.00" shape="2525.330055,7713.204631 2543.751296,7727.086087 2573.731235,7688.676026 2556.636790,7675.210607 2526.914100,7711.325370 2497.512354,7687.651975 2495.825996,7689.635595 2525.330055,7713.204631"/>
    <poly id="154492856" type="amenity.parking" color="184,184,179" fill="1" layer="-1.00" shape="2611.645667,7610.346269 2561.344863,7668.303724 2577.848289,7682.550404 2627.281684,7622.609378 2611.645667,7610.346269"/>
    <poly id="154493690" type="building.yes" color="255,230,230" fill="1" layer="-1.00" shape="2565.939727,7768.344416 2572.531492,7773.916368 2587.847164,7755.880338 2581.254957,7750.297227 2565.939727,7768.344416"/>
    <poly id="172450127" type="building.yes" color="255,230,230" fill="0" layer="-1.00" shape="2200.485567,7832.112249 2209.016667,7823.750257 2213.333954,7828.151269 2214.617079,7829.449752"/>
    <poly id="172450129" type="landuse.industrial" color="209,209,204" fill="0" layer="-3.00" shape="1916.205086,7886.464358 1897.304449,7894.722740 1887.546218,7872.911211 1875.248016,7879.170483 1832.701287,7953.466179 1822.689810,7971.129273 1820.659624,7970.061035 1803.647013,7997.643315 1806.880589,7999.689737 1785.450942,8037.814036"/>
    <poly id="172450130" type="landuse.industrial" color="209,209,204" fill="0" layer="-3.00" shape="2087.022602,7757.400505 2091.495658,7753.512210 2093.953793,7751.364255 2095.849393,7753.708824 2099.958516,7750.392263 2178.601007,7834.577961 2200.485567,7832.112249"/>
    <poly id="176336059" type="amenity.parking" color="184,184,179" fill="0" layer="-1.00" shape="2382.533634,7825.327991 2377.578053,7821.353185 2372.740415,7817.529826 2338.641773,7859.648531 2342.622975,7862.769707 2332.316632,7875.415080 2339.412810,7881.134038 2322.271047,7902.966375"/>
    <poly id="176336063" type="landuse.industrial" color="209,209,204" fill="0" layer="-3.00" shape="1846.088148,8199.914906 1866.821406,8189.889432 1898.609710,8174.623661"/>
    <poly id="176336065" type="building.yes" color="255,230,230" fill="0" layer="-1.00" shape="1846.088148,8199.914906 1774.246245,8232.836007 1772.884862,8229.980016 1767.185372,8232.423255"/>
    <poly id="176336069" type="landuse.industrial" color="209,209,204" fill="0" layer="-3.00" shape="1898.609710,8174.623661 1904.433792,8181.450987 1985.504644,8144.077762"/>
    <poly id="176336070" type="landuse.industrial" color="209,209,204" fill="0" layer="-3.00" shape="1596.184880,7915.437986 1626.035379,7933.334278 1640.203769,7940.277834 1743.222717,8004.362451 1760.196236,8021.530168 1785.450942,8037.814036"/>
    <poly id="176336074" type="landuse.industrial" color="209,209,204" fill="0" layer="-3.00" shape="1785.450942,8037.814036 1782.556723,8043.948158 1840.684369,8113.673894 1898.609710,8174.623661"/>
    <poly id="176336075" type="landuse.industrial" color="209,209,204" fill="0" layer="-3.00" shape="1604.123839,8039.939788 1681.824943,8124.509178 1738.006872,8246.394415 1767.185372,8232.423255"/>
    <poly id="176338527" type="amenity.university" color="237,199,199" fill="0" layer="-1.00" shape="2731.837429,8184.007209 2772.171147,8152.940926 2775.720666,8150.204434"/>
    <poly id="176338529" type="amenity.university" color="237,199,199" fill="0" layer="-1.00" shape="2688.933509,8147.606478 2692.801442,8144.422654 2697.320271,8140.700522 2721.121045,8167.181027 2721.468370,8167.613341 2723.724055,8170.445756 2726.116465,8173.194779 2724.358624,8174.779773 2731.837429,8184.007209"/>
    <poly id="176338530" type="amenity.university" color="237,199,199" fill="0" layer="-1.00" shape="2635.024642,8201.769439 2640.141792,8197.600151 2642.942715,8195.483714 2637.978982,8189.424234 2642.215054,8186.348551"/>
    <poly id="176338533" type="building.yes" color="255,230,230" fill="0" layer="-1.00" shape="2642.215054,8186.348551 2654.436762,8200.997393 2689.839011,8171.572701 2701.108664,8162.212703 2688.933509,8147.606478"/>
    <poly id="176338534" type="landuse.industrial" color="209,209,204" fill="0" layer="-3.00" shape="2811.508188,8245.579009 2822.412868,8236.478927"/>
    <poly id="176338536" type="building.yes" color="255,230,230" fill="0" layer="-1.00" shape="2569.515871,8274.236205 2573.568647,8279.484068 2620.766088,8243.152520 2616.890243,8238.131780 2645.878717,8215.814130 2635.024642,8201.769439"/>
    <poly id="176338537" type="amenity.university" color="237,199,199" fill="0" layer="-1.00" shape="2569.515871,8274.236205 2567.268834,8276.052279 2565.180968,8277.928999 2594.798172,8315.930629 2628.851743,8360.413924 2647.471696,8362.738566 2651.006360,8363.202008 2678.838540,8365.410976 2708.350091,8335.882798 2714.475107,8341.005016"/>
    <poly id="180120771" type="building.yes" color="255,230,230" fill="1" layer="-1.00" shape="1729.060123,8509.621488 1759.369253,8544.389993 1765.223092,8550.558173 1782.478600,8533.333767 1753.028122,8492.789899 1729.060123,8509.621488"/>
    <poly id="180373464" type="building.yes" color="255,230,230" fill="1" layer="-1.00" shape="2646.287047,8545.780100 2658.559421,8549.178544 2671.065781,8504.118479 2658.787684,8500.720211 2646.287047,8545.780100"/>
    <poly id="180373635" type="building.yes" color="255,230,230" fill="1" layer="-1.00" shape="2609.629385,8428.412571 2615.198594,8424.214356 2605.486758,8410.871906 2599.654852,8415.225361 2609.629385,8428.412571"/>
    <poly id="187247133" type="building.service" color="255,230,230" fill="1" layer="-1.00" shape="2778.305886,8383.654143 2789.657374,8386.977626 2793.225425,8374.853783 2781.873469,8371.519157 2778.305886,8383.654143"/>
    <poly id="192537963" type="building.yes" color="255,230,230" fill="1" layer="-1.00" shape="1773.506947,8129.588487 1770.989906,8124.124800 1778.305213,8120.759456 1780.827836,8126.222927 1773.506947,8129.588487"/>
    <poly id="193352214" type="amenity.parking" color="184,184,179" fill="1" layer="-1.00" shape="2066.699317,8154.638463 2109.483704,8134.025534 2133.390875,8176.049925 2139.782765,8180.525308 2147.608640,8186.293223 2150.821224,8182.120105 2172.877799,8197.751885 2163.963792,8210.733245 2183.800987,8225.326403 2193.204078,8212.392751 2215.345813,8227.921085 2223.868027,8234.029661 2227.531821,8236.917919 2257.207537,8241.827193 2253.222379,8276.353410 2273.275707,8278.653315 2271.340226,8309.197125 2237.753193,8304.631030 2175.083823,8273.215881 2174.555301,8270.170935 2181.101468,8260.916988 2140.737104,8226.997709 2131.049254,8237.099937 2125.430065,8231.624290 2066.699317,8154.638463"/>
    <poly id="193581753" type="building.yes" color="255,230,230" fill="1" layer="-1.00" shape="2181.697677,8407.368583 2184.139298,8404.953760 2182.850750,8403.655509 2188.860914,8397.722482 2192.173097,8401.070449 2193.197286,8400.060290 2196.655362,8403.558598 2194.542521,8405.648338 2200.152031,8411.313970 2195.192699,8416.202329 2193.327029,8414.324771 2191.230094,8416.391591 2188.734347,8413.869925 2190.982136,8411.652246 2187.390219,8408.025429 2184.835130,8410.545045 2181.697677,8407.368583"/>
    <poly id="193581755" type="building.yes" color="255,230,230" fill="1" layer="-1.00" shape="2092.072753,8461.896855 2093.806517,8462.698186 2094.993412,8460.132005 2093.259647,8459.330674 2092.072753,8461.896855"/>
    <poly id="208901587" type="landuse.grass" color="194,194,130" fill="1" layer="-3.00" shape="2191.017525,8090.696811 2254.278836,8061.298545 2263.935953,8057.518860 2267.764712,8056.621478 2269.748879,8056.666136 2271.338375,8057.640448 2276.241654,8062.141119 2271.661686,8067.293139 2282.627465,8076.438455 2287.268067,8071.261770 2303.077976,8083.405165 2303.765400,8084.225413 2304.073486,8085.082860 2304.123151,8086.061940 2299.978429,8126.380192 2293.437208,8126.224716 2292.409454,8139.118846 2290.579512,8138.722527 2289.140676,8137.876066 2287.558807,8136.667339 2286.229230,8135.181146 2285.210140,8133.615864 2284.375621,8131.474777 2284.525168,8129.295023 2285.761235,8126.548616 2227.733968,8081.795299 2196.251085,8092.486553 2193.404848,8092.877161 2192.511885,8092.811937 2191.710715,8092.375216 2191.017525,8090.696811"/>
    <poly id="208901588" type="landuse.grass" color="194,194,130" fill="0" layer="-3.00" shape="2332.159664,8135.037756 2330.968656,8130.948600 2334.763456,8093.119019 2359.502420,8091.222085 2361.807203,8091.588643 2363.637778,8092.285970 2392.561091,8130.068151 2387.993553,8131.117044"/>
    <poly id="214138383" type="building.yes" color="255,230,230" fill="1" layer="-1.00" shape="1858.981145,7978.283081 1865.820885,7975.204225 1876.272164,7998.404203 1869.432461,8001.483040 1858.981145,7978.283081"/>
    <poly id="214138384" type="building.yes" color="255,230,230" fill="0" layer="-1.00" shape="1654.972319,7716.608721 1648.127624,7727.235463"/>
    <poly id="214138384#1" type="man_made.works" color="255,230,230" fill="0" layer="-1.00" shape="1654.972319,7716.608721 1648.127624,7727.235463"/>
    <poly id="214138385" type="landuse.industrial" color="209,209,204" fill="0" layer="-3.00" shape="1948.214779,7829.674781 1918.655100,7843.023875"/>
    <poly id="214138386" type="building.yes" color="255,230,230" fill="0" layer="-1.00" shape="1876.548623,8127.789933 1871.997672,8117.177844"/>
    <poly id="214138387" type="building.yes" color="255,230,230" fill="0" layer="-1.00" shape="1648.127624,7727.235463 1654.460318,7731.311078 1661.305022,7720.684348 1654.972319,7716.608721"/>
    <poly id="214138388" type="building.yes" color="255,230,230" fill="0" layer="-1.00" shape="1876.548623,8127.789933 1886.250286,8123.305147 1881.402690,8112.838513 1871.997672,8117.177844"/>
    <poly id="231892712" type="landuse.industrial" color="209,209,204" fill="0" layer="-3.00" shape="2672.601212,7862.712055 2698.127198,7888.155020 2711.375255,7906.543050 2730.338496,7943.168368 2736.521319,7960.618093 2741.249143,7978.381218 2761.556089,8069.779972 2774.884733,8127.428333 2784.546846,8145.221230 2799.530781,8184.377172 2829.716800,8221.366139"/>
    <poly id="231892713" type="landuse.industrial" color="209,209,204" fill="0" layer="-3.00" shape="2844.508019,8234.588362 2903.234229,8300.192528 2914.972338,8313.824318 2934.206028,8343.862596 2950.008431,8367.067684 2963.701221,8410.354839 2965.205415,8411.734096 2972.983496,8442.097996 2973.760297,8448.644928"/>
    <poly id="232647624" type="man_made.chimney" color="255,230,230" fill="1" layer="-1.00" shape="2722.534470,8184.249019 2722.081320,8182.973601 2720.854356,8182.386231 2719.578487,8182.837544 2718.987750,8184.053526 2719.441337,8185.340074 2720.667864,8185.916313 2721.943732,8185.465000 2722.534470,8184.249019"/>
    <poly id="273303019" type="building.yes" color="255,230,230" fill="1" layer="-1.00" shape="2234.231610,8027.839510 2231.694934,8022.287131 2232.596182,8021.850375 2235.876530,8020.249891 2232.098182,8011.602552 2240.904976,8007.700162 2244.999340,8016.836754 2247.138623,8021.825058 2234.231610,8027.839510"/>
    <poly id="273303022" type="building.industrial" color="255,230,230" fill="1" layer="-1.00" shape="2005.746887,7809.305063 2012.835311,7814.098439 2035.317563,7780.995481 2028.228674,7776.190931 2005.746887,7809.305063"/>
    <poly id="273303025" type="building.industrial" color="255,230,230" fill="1" layer="-1.00" shape="1961.331859,7836.382248 1957.591626,7828.012351 1997.379480,7810.292187 2001.119197,7818.650993 1961.331859,7836.382248"/>
    <poly id="273303027" type="amenity.parking" color="184,184,179" fill="0" layer="-1.00" shape="2492.193196,7766.487843 2438.012086,7835.491088 2425.900457,7850.235981 2421.777564,7855.916103"/>
    <poly id="29629550" type="building.yes" color="255,230,230" fill="1" layer="-1.00" shape="2497.211106,7659.414640 2494.128771,7655.366188 2495.042464,7654.672609 2461.062794,7610.120393 2461.900388,7609.485532 2459.250829,7606.334265 2450.707076,7598.843587 2437.775905,7615.705238 2480.738046,7671.933575 2481.651732,7671.239992 2483.266696,7670.006087 2489.328184,7677.471583 2498.541353,7670.053433 2492.778517,7662.776871 2497.211106,7659.414640"/>
    <poly id="29629644" type="building.industrial" color="255,230,230" fill="1" layer="-1.00" shape="2660.190743,7707.928687 2737.378449,7762.450862 2735.059502,7765.730018 2743.555498,7771.740488 2745.901100,7768.426850 2769.994313,7785.453940 2789.450558,7758.003815 2676.195029,7678.004582 2673.599684,7681.662490 2677.072815,7684.112749 2660.190743,7707.928687"/>
    <poly id="305027312" type="amenity.fuel" color="237,199,199" fill="1" layer="-1.00" shape="2399.542503,7840.178328 2393.323555,7847.958572 2396.948420,7850.848536 2401.752441,7854.673242 2405.938040,7858.009420 2407.597040,7859.326654 2413.815995,7851.546435 2399.542503,7840.178328"/>
    <poly id="305027312#1" type="building.yes" color="255,230,230" fill="1" layer="-1.00" shape="2399.542503,7840.178328 2393.323555,7847.958572 2396.948420,7850.848536 2401.752441,7854.673242 2405.938040,7858.009420 2407.597040,7859.326654 2413.815995,7851.546435 2399.542503,7840.178328"/>
    <poly id="316100925" type="building.roof" color="255,230,230" fill="1" layer="-1.00" shape="2396.948420,7850.848536 2389.100944,7860.654783 2381.111439,7854.290775 2375.126788,7861.760855 2396.835018,7879.057600 2402.942171,7871.426673 2398.219077,7867.665678 2405.938040,7858.009420 2401.752441,7854.673242 2396.948420,7850.848536"/>
    <poly id="328925806" type="building.yes" color="255,230,230" fill="1" layer="-1.00" shape="2136.282058,8262.791177 2139.551342,8258.638111 2146.472758,8264.051408 2143.203910,8268.215599 2136.282058,8262.791177"/>
    <poly id="359666115" type="leisure.park" color="207,245,201" fill="0" layer="-2.00" shape="2584.661124,8209.072779 2580.961392,8204.546829"/>
    <poly id="359666116" type="amenity.hospital" color="237,199,199" fill="0" layer="-1.00" shape="2431.031791,8103.374348 2495.033629,8187.583363"/>
    <poly id="359666117" type="amenity.hospital" color="237,199,199" fill="0" layer="-1.00" shape="2661.938233,7873.285747 2585.203502,7813.296042"/>
    <poly id="359666118" type="amenity.hospital" color="237,199,199" fill="0" layer="-1.00" shape="2693.936600,7973.445503 2716.345590,7951.364042"/>
    <poly id="359666119" type="amenity.hospital" color="237,199,199" fill="0" layer="-1.00" shape="2628.228071,8026.955949 2616.998872,8036.069312"/>
    <poly id="359666120" type="landuse.industrial" color="209,209,204" fill="0" layer="-3.00" shape="2829.716800,8221.366139 2844.508019,8234.588362"/>
    <poly id="359666122" type="leisure.park" color="207,245,201" fill="0" layer="-2.00" shape="2523.880715,8226.473113 2540.453435,8248.107961 2584.661124,8209.072779"/>
    <poly id="359666123" type="amenity.hospital" color="237,199,199" fill="0" layer="-1.00" shape="2594.014061,8201.537839 2587.359185,8206.904592 2584.661124,8209.072779"/>
    <poly id="359666124" type="amenity.hospital" color="237,199,199" fill="0" layer="-1.00" shape="2479.286942,7949.253751 2461.688414,7974.726463 2461.242227,7975.201043 2448.938544,7988.180879"/>
    <poly id="359666125" type="leisure.park" color="207,245,201" fill="0" layer="-2.00" shape="2448.938544,7988.180879 2452.889977,8048.481742 2443.682618,8073.569519 2431.031791,8103.374348"/>
    <poly id="359666127" type="leisure.park" color="207,245,201" fill="0" layer="-2.00" shape="2585.203502,7813.296042 2534.406098,7879.066005 2479.286942,7949.253751"/>
    <poly id="359666128" type="amenity.hospital" color="237,199,199" fill="0" layer="-1.00" shape="2716.345590,7951.364042 2690.157731,7914.731999 2661.938233,7873.285747"/>
    <poly id="359666131" type="amenity.hospital" color="237,199,199" fill="0" layer="-1.00" shape="2674.448867,8135.086290 2623.631237,8068.261249 2605.509632,8045.404720 2616.998872,8036.069312"/>
    <poly id="359666132" type="leisure.park" color="207,245,201" fill="0" layer="-2.00" shape="2580.961392,8204.546829 2578.461969,8201.356169 2556.779485,8217.914112 2550.938435,8220.328226 2544.652481,8221.678440 2538.574809,8222.485389 2533.412703,8222.364587 2529.287673,8221.701448 2525.261013,8220.833789"/>
    <poly id="359666133" type="landuse.industrial" color="209,209,204" fill="0" layer="-3.00" shape="2716.345590,7951.364042 2731.733713,7984.506306 2754.396216,8084.998727 2717.146035,8115.030228 2709.989668,8105.032116 2674.448867,8135.086290"/>